Circuit: * C:\Users\pache\OneDrive\Documents\OpenBeam\Hardware\Misc\Draft7.asc

Direct Newton iteration for .op point succeeded.
.step rshift=1000
.step rshift=1258.93
.step rshift=1584.89
.step rshift=1995.26
.step rshift=2511.89
.step rshift=3162.28
.step rshift=3981.07
.step rshift=5011.87
.step rshift=6309.57
.step rshift=7943.28
.step rshift=10000
.step rshift=12589.3
.step rshift=15848.9
.step rshift=19952.6
.step rshift=25118.9
.step rshift=31622.8
.step rshift=39810.7
.step rshift=50118.7
.step rshift=63095.7
.step rshift=79432.8
.step rshift=100000
.step rshift=125893
.step rshift=158489
.step rshift=199526
.step rshift=251189
.step rshift=316228
.step rshift=398107
.step rshift=501187
.step rshift=630957
.step rshift=794328
.step rshift=1e+06
.step rshift=1.25893e+06
.step rshift=1.58489e+06
.step rshift=1.99526e+06
.step rshift=2.51189e+06
.step rshift=3.16228e+06
.step rshift=3.98107e+06
.step rshift=5.01187e+06
.step rshift=6.30957e+06
.step rshift=7.94328e+06
.step rshift=1e+07

Date: Sat Mar 15 19:23:47 2025
Total elapsed time: 1.827 seconds.

tnom = 27
temp = 27
method = trap
totiter = 28
traniter = 0
tranpoints = 0
accept = 0
rejected = 0
matrix size = 14
fillins = 5
solver = Normal
Avg thread counts: 20.0/0.0/20.0/20.0
Matrix Compiler1:      48 opcodes
Matrix Compiler2: 1.39 KB object code size
