Circuit: * C:\Users\pache\OneDrive\Documents\OpenBeam\Hardware\Misc\Mixer_RF_Switch.asc

.OP point found by inspection.

Date: Sat Mar 15 19:29:21 2025
Total elapsed time: 4.845 seconds.

tnom = 27
temp = 27
method = modified trap
totiter = 1247712
traniter = 1247712
tranpoints = 615907
accept = 419084
rejected = 196823
matrix size = 5
fillins = 0
solver = Normal
Avg thread counts: 1.0/1.0/1.0/1.0
Matrix Compiler1:       5 opcodes  0.5/[0.5]/0.6
Matrix Compiler2: 253 bytes object code size  0.4/1.0/[0.4]

